Git is a distributed version control system.
Git is free software distributed under the GPL.
new line.
oh,this is new line.


Creating a new branch is quick AND simple.benben!!!
shuangwaiwai add dev!  next one!!!!!

